8
NbP
Nb         1.67822        1.67822       11.43557
Nb         1.67822        0.00000        2.85823
Nb         0.00000        0.00000        5.71734
Nb         0.00000        1.67822        8.57646
P          0.00000        0.00000       10.49234
P          0.00000        1.67822        1.91500
P          1.67822        1.67822        4.77411
P          1.67822        0.00000        7.63322
